

[General]
cmdenv-express-mode = true
cmdenv-autoflush = true
cmdenv-status-frequency = 1s
**.cmdenv-log-level = info

image-path = ../../images

network = DefconScenario

##########################################################
#            Simulation parameters                       #
##########################################################
debug-on-errors = true
print-undisposed = true

sim-time-limit = 30s

**.scalar-recording = true
**.vector-recording = true

*.playgroundSizeX = 5000m
*.playgroundSizeY = 5000m
*.playgroundSizeZ = 50m


##########################################################
# Annotation parameters                                  #
##########################################################
*.annotations.draw = true

##########################################################
# Obstacle parameters                                    #
##########################################################
*.obstacles.obstacles = xmldoc("../../../examples/veins/config.xml", "//AnalogueModel[@type='SimpleObstacleShadowing']/obstacles")

##########################################################
#            TraCIScenarioManager parameters             #
##########################################################
*.manager.updateInterval = 1s
*.manager.host = "localhost"
*.manager.port = 9999
*.manager.autoShutdown = true
*.manager.launchConfig = xmldoc("boston.launchd.xml")

##########################################################
#                       RSU SETTINGS                     #
##########################################################
*.rsu[0].mobility.x = 2000
*.rsu[0].mobility.y = 2000
*.rsu[0].mobility.z = 3

*.rsu[*].applType = "TraCIDemoRSU11p"
*.rsu[*].appl.headerLength = 80 bit
*.rsu[*].appl.sendBeacons = true
*.rsu[*].appl.dataOnSch = false
*.rsu[*].appl.beaconInterval = 1s
*.rsu[*].appl.beaconUserPriority = 7
*.rsu[*].appl.dataUserPriority = 5
*.rsu[*].nic.phy80211p.antennaOffsetZ = 0 m

##########################################################
#            11p specific parameters                     #
#                                                        #
#                    NIC-Settings                        #
##########################################################
*.connectionManager.sendDirect = true
*.connectionManager.maxInterfDist = 2600m
*.connectionManager.drawMaxIntfDist = false

*.**.nic.mac1609_4.useServiceChannel = false

*.**.nic.mac1609_4.txPower = 20mW
*.**.nic.mac1609_4.bitrate = 6Mbps
*.**.nic.phy80211p.minPowerLevel = -110dBm

*.**.nic.phy80211p.useNoiseFloor = true
*.**.nic.phy80211p.noiseFloor = -98dBm

*.**.nic.phy80211p.decider = xmldoc("../../../examples/veins/config.xml")
*.**.nic.phy80211p.analogueModels = xmldoc("../../../examples/veins/config.xml")
*.**.nic.phy80211p.usePropagationDelay = true

*.**.nic.phy80211p.antenna = xmldoc("../../../examples/veins/antenna.xml", "/root/Antenna[@id='monopole']")
*.node[*].nic.phy80211p.antennaOffsetY = 0 m
*.node[*].nic.phy80211p.antennaOffsetZ = 1.895 m

##########################################################
#                      App Layer                         #
##########################################################
*.node[*].applType = "CarApp"
*.node[*].appl.headerLength = 80 bit
*.node[*].appl.sendBeacons = true
*.node[*].appl.dataOnSch = false
*.node[*].appl.beaconInterval = 0.1s
*.node[*].appl.mapFile = "boston.junctions.json"
*.node[*].appl.runID = "${runid}"

##########################################################
#                      Mobility                          #
##########################################################
*.node[*].veinsmobility.x = 0
*.node[*].veinsmobility.y = 0
*.node[*].veinsmobility.z = 0
*.node[*].veinsmobility.setHostSpeed = false
*.node[*0].veinsmobility.accidentCount = 1
*.node[*0].veinsmobility.accidentStart = 73s
*.node[*0].veinsmobility.accidentDuration = 50s

##########################################################
#                TraceManager parameters                 #
##########################################################
**.traceManager.filepath = "${resultdir}/rxtrace-${runid}.csv"

##########################################################
#                  Attack Configuration                  #
##########################################################
*.node[*].appl.attackPolicy = 0
*.node[*].appl.sporadicInsertionRate = 0.0
*.node[*].appl.maliciousProbability = 0.5
*.node[*].appl.attackType = 1
*.node[*].appl.nDosMessages = 4
*.node[*].appl.posAttackOffset = 10m
*.node[*].appl.dimensionAttackOffset = 4m
*.node[*].appl.headingAttackOffset = 0.5235987756rad
*.node[*].appl.yawRateAttackOffset = 4
*.node[*].appl.accelerationAttackOffset = 2
*.node[*].appl.speedAttackOffset = 10mps
